[TITLE]

[JUNCTIONS]
1 70.0 3.28424143791 
2 70.0 1.84876835346 
3 70.0 1.57653212547 
4 70.0 1.07025003433 
5 70.0 1.37356448174 
6 70.0 1.59962630272 
7 70.0 1.48759949207 
8 70.0 0.168702855706 
9 70.0 3.5 
10 70.0 1.74372756481 
11 70.0 1.80108726025 
12 70.0 2.95693016052 
13 70.0 1.77967441082 
14 70.0 2.81029009819 
15 70.0 1.04268491268 
16 70.0 1.73964345455 
18 200.0 0.683532655239 
19 70.0 3.28213906288 
20 70.0 2.57524013519 
21 70.0 1.33756124973 
22 70.0 1.17515146732 
23 70.0 2.69555664063 
24 70.0 0.887304663658 
25 70.0 3.14708709717 
26 70.0 1.00048041344 
27 70.0 2.65563702583 
28 70.0 2.88622283936 
29 70.0 2.52513480186 
30 70.0 0.88044154644 
31 70.0 2.11397051811 
32 70.0 1.55392897129 
33 70.0 3.31745219231 
17 70.0 0.996271073818 
35 70.0 1.35319209099 
38 200.0 0.0137392850593 

[RESERVOIRS]
36 0.0 

[TANKS]
34 0.0 1.50576 0.0 20.0 50.0 0.0
37 0.0 0.683299 0.0 20.0 50.0 0.0

[PIPES]
1 1 2 9400.0 12.0 100.0 0.0 OPEN
2 2 3 9400.0 12.0 100.0 0.0 OPEN
3 3 4 9400.0 12.0 100.0 0.0 OPEN
4 4 13 9400.0 12.0 100.0 0.0 OPEN
5 4 5 9400.0 12.0 100.0 0.0 OPEN
6 5 14 9400.0 12.0 100.0 0.0 OPEN
7 14 15 9400.0 12.0 100.0 0.0 OPEN
8 15 16 9400.0 12.0 100.0 0.0 OPEN
12 16 19 9400.0 12.0 100.0 0.0 OPEN
13 19 20 9400.0 12.0 100.0 0.0 OPEN
14 19 10 9400.0 12.0 100.0 0.0 OPEN
15 10 11 9400.0 12.0 100.0 0.0 OPEN
16 11 12 9400.0 12.0 100.0 0.0 OPEN
17 12 21 9400.0 12.0 100.0 0.0 OPEN
18 21 22 9400.0 12.0 100.0 0.0 OPEN
19 22 23 9400.0 12.0 100.0 0.0 OPEN
20 23 24 9400.0 12.0 100.0 0.0 OPEN
21 23 6 9400.0 12.0 100.0 0.0 OPEN
22 6 25 9400.0 12.0 100.0 0.0 OPEN
23 25 26 9400.0 12.0 100.0 0.0 OPEN
24 26 27 9400.0 12.0 100.0 0.0 OPEN
25 27 28 9400.0 12.0 100.0 0.0 OPEN
26 6 7 9400.0 12.0 100.0 0.0 OPEN
27 7 8 9400.0 12.0 100.0 0.0 OPEN
28 8 29 9400.0 12.0 100.0 0.0 OPEN
29 29 30 9400.0 12.0 100.0 0.0 OPEN
30 8 31 9400.0 12.0 100.0 0.0 OPEN
31 22 32 9400.0 12.0 100.0 0.0 OPEN
32 32 33 9400.0 12.0 100.0 0.0 OPEN
36 33 7 9400.0 12.0 100.0 0.0 OPEN
37 30 33 9400.0 12.0 100.0 0.0 OPEN
38 24 25 9400.0 12.0 100.0 0.0 OPEN
39 13 5 9400.0 12.0 100.0 0.0 OPEN
40 29 31 9400.0 12.0 100.0 0.0 OPEN
45 20 23 9400.0 12.0 100.0 0.0 OPEN
10 9 17 9400.0 12.0 100.0 0.0 OPEN
34 35 34 9400.0 12.0 100.0 0.0 CV
11 17 35 9400.0 12.0 100.0 0.0 OPEN
35 38 18 9400.0 12.0 100.0 0.0 OPEN

[PUMPS]
41 36 1 POWER 50.0 SPEED 1.1
42 37 31 POWER 50.0 SPEED 0.800906
9 16 9 POWER 50.0 SPEED 0.770989
33 34 38 POWER 50.0 SPEED 0.958516

[VALVES]

[CURVES]

[ENERGY]
Global Efficiency 75
Global Price 0
Demand Charge 0

[REACTIONS]
Order Bulk 1
Order Tank 1
Order Wall 1
Global Bulk 0
Global Wall 0
Limiting Potential 0
Roughness Correlation 0

[TIMES]
Duration 0:00:10
Hydraulic Timestep 0:00:10
Quality Timestep 0:05
Pattern Timestep 1:00
Pattern Start 0:00
Report Timestep 1:00
Report Start 0:00
Start ClockTime 12 am
Statistic NONE

[REPORT]
Status No
Summary No
Page 0

[OPTIONS]
Units GPM
Headloss H-W
Specific Gravity 1
Viscosity 1
Trials 40
Accuracy 0.001
CHECKFREQ 2
MAXCHECK 10
DAMPLIMIT 0
Unbalanced Continue 10
Pattern 1
Demand Multiplier 1.0
Emitter Exponent 0.5
Quality None mg/L
Diffusivity 1
Tolerance 0.01

[END]
